Version 4
SHEET 1 1924 680
WIRE -1456 -144 -1456 -208
WIRE -1344 -144 -1344 -208
WIRE -1456 -32 -1456 -64
WIRE -1344 -32 -1344 -64
WIRE 528 -32 -16 -32
WIRE 96 64 64 64
WIRE 432 64 320 64
WIRE 64 80 64 64
WIRE -16 128 -16 -32
WIRE -16 128 -96 128
WIRE 96 128 -16 128
WIRE 464 128 320 128
WIRE -272 192 -544 192
WIRE 96 192 -272 192
WIRE 528 192 528 -32
WIRE 528 192 320 192
WIRE 1600 192 1520 192
WIRE -272 224 -272 192
WIRE 1600 240 1600 192
WIRE 96 256 48 256
WIRE 400 256 320 256
WIRE 1088 288 1088 64
WIRE 1536 288 1088 288
WIRE 400 304 400 256
WIRE -272 336 -272 304
WIRE 208 336 -272 336
WIRE -272 384 -272 336
WIRE 400 400 400 368
WIRE 1088 400 1088 288
WIRE 208 432 208 336
WIRE 464 432 464 128
WIRE 464 432 208 432
WIRE 1600 432 1600 336
WIRE 1792 432 1600 432
WIRE 1792 480 1792 432
WIRE -272 496 -272 464
WIRE -96 496 -96 128
WIRE -96 496 -272 496
WIRE -272 528 -272 496
WIRE 1088 544 1088 480
WIRE 1792 592 1792 560
WIRE -272 640 -272 592
FLAG 64 80 0
FLAG -1456 -32 0
FLAG 400 400 0
FLAG -272 640 0
FLAG -1456 -208 5V
FLAG 432 64 5V
FLAG 48 256 5V
FLAG -544 192 PULSE
FLAG -1344 -32 0
FLAG -1344 -208 170V
FLAG 1088 64 PULSE
FLAG 1520 192 170V
FLAG 1088 544 0
FLAG 1792 592 0
SYMBOL Misc\\NE555 208 160 R0
SYMATTR InstName U1
SYMBOL voltage -1456 -160 R0
WINDOW 123 0 0 Left 0
WINDOW 39 0 0 Left 0
SYMATTR InstName V1
SYMATTR Value 5
SYMBOL cap 384 304 R0
SYMATTR InstName C1
SYMATTR Value 10n
SYMBOL res -256 320 R180
WINDOW 0 36 76 Left 2
WINDOW 3 36 40 Left 2
SYMATTR InstName R1
SYMATTR Value 0
SYMBOL res -256 480 R180
WINDOW 0 36 76 Left 2
WINDOW 3 36 40 Left 2
SYMATTR InstName R2
SYMATTR Value 500
SYMBOL cap -288 528 R0
SYMATTR InstName C2
SYMATTR Value 10n
SYMBOL voltage -1344 -160 R0
WINDOW 123 0 0 Left 0
WINDOW 39 0 0 Left 0
SYMATTR InstName V2
SYMATTR Value 149
SYMBOL res 1072 384 R0
SYMATTR InstName R3
SYMATTR Value 1k
SYMBOL res 1776 464 R0
SYMATTR InstName R4
SYMATTR Value 100k
SYMBOL npn 1536 240 R0
SYMATTR InstName Q1
SYMATTR Value 2N5550
TEXT -546 664 Left 2 !.tran 1m
