Version 4
SHEET 1 2328 1224
WIRE 272 -48 144 -48
WIRE 144 -32 144 -48
WIRE 144 80 144 48
WIRE 368 80 336 80
WIRE 272 96 272 -48
WIRE 368 96 368 80
WIRE 272 192 272 176
WIRE 272 192 176 192
WIRE 336 192 336 80
WIRE 336 192 272 192
WIRE 368 192 368 176
WIRE 576 192 368 192
WIRE 720 192 640 192
WIRE 976 192 720 192
WIRE 1088 192 976 192
WIRE 1296 192 1152 192
WIRE 1536 192 1296 192
WIRE 1632 192 1536 192
WIRE 1840 192 1696 192
WIRE 1952 192 1840 192
WIRE 2128 192 2016 192
WIRE 2224 192 2128 192
WIRE 176 208 176 192
WIRE 720 272 720 192
WIRE 976 272 976 192
WIRE 1296 272 1296 192
WIRE 1536 272 1536 192
WIRE 1840 272 1840 192
WIRE 2128 272 2128 192
WIRE 2224 272 2224 192
WIRE 128 288 32 288
WIRE 32 336 32 288
WIRE 176 352 176 304
WIRE 720 384 720 336
WIRE 816 384 720 384
WIRE 976 384 976 336
WIRE 976 384 880 384
WIRE 1296 384 1296 336
WIRE 1296 384 976 384
WIRE 1376 384 1296 384
WIRE 1536 384 1536 336
WIRE 1536 384 1440 384
WIRE 1840 384 1840 336
WIRE 1840 384 1536 384
WIRE 2128 384 2128 336
WIRE 2224 384 2224 352
WIRE 2224 384 2128 384
WIRE 2128 416 2128 384
WIRE 688 432 656 432
WIRE 720 432 720 384
WIRE 736 432 720 432
WIRE 32 448 32 416
WIRE 688 496 688 432
WIRE 688 496 656 496
WIRE 736 496 736 432
WIRE 736 496 720 496
WIRE 720 544 720 496
WIRE 304 688 176 688
WIRE 176 704 176 688
WIRE 176 816 176 784
WIRE 400 816 368 816
WIRE 304 832 304 688
WIRE 400 832 400 816
WIRE 304 928 304 912
WIRE 304 928 208 928
WIRE 368 928 368 816
WIRE 368 928 304 928
WIRE 400 928 400 912
WIRE 592 928 400 928
WIRE 944 928 656 928
WIRE 1072 928 944 928
WIRE 208 944 208 928
WIRE 944 976 944 928
WIRE 1072 976 1072 928
WIRE 160 1024 64 1024
WIRE 64 1072 64 1024
WIRE 208 1088 208 1040
WIRE 944 1088 944 1040
WIRE 1072 1088 1072 1056
WIRE 1072 1088 944 1088
WIRE 944 1104 944 1088
WIRE 64 1184 64 1152
FLAG 176 352 0
FLAG 32 448 0
FLAG 144 80 0
FLAG 2128 416 0
FLAG 720 544 0
FLAG 208 1088 0
FLAG 64 1184 0
FLAG 176 816 0
FLAG 944 1104 0
SYMBOL ind2 256 80 R0
SYMATTR InstName L1
SYMATTR Value 25µ
SYMATTR Type ind
SYMATTR SpiceLine Rser=.74
SYMBOL ind2 352 80 R0
SYMATTR InstName L2
SYMATTR Value 250µ
SYMATTR Type ind
SYMATTR SpiceLine Rser=13.7
SYMBOL nmos 128 208 R0
SYMATTR InstName M1
SYMATTR Value IPI110N20N3
SYMBOL voltage 32 320 R0
WINDOW 123 0 0 Left 0
WINDOW 39 0 0 Left 0
SYMATTR InstName V1
SYMATTR Value PULSE(0 20 0 0 0 60u 70u 10000)
SYMBOL voltage 144 -48 R0
WINDOW 123 0 0 Left 0
WINDOW 39 0 0 Left 0
SYMATTR InstName V2
SYMATTR Value 5
SYMBOL cap 640 176 R90
WINDOW 0 0 32 VBottom 2
WINDOW 3 32 32 VTop 2
SYMATTR InstName C1
SYMATTR Value 1µ
SYMBOL diode 736 336 R180
WINDOW 0 24 64 Left 2
WINDOW 3 24 0 Left 2
SYMATTR InstName D1
SYMBOL cap 880 368 R90
WINDOW 0 0 32 VBottom 2
WINDOW 3 32 32 VTop 2
SYMATTR InstName C2
SYMATTR Value 1µ
SYMBOL diode 960 272 R0
SYMATTR InstName D2
SYMBOL cap 1152 176 R90
WINDOW 0 0 32 VBottom 2
WINDOW 3 32 32 VTop 2
SYMATTR InstName C3
SYMATTR Value 1µ
SYMBOL diode 1312 336 R180
WINDOW 0 24 64 Left 2
WINDOW 3 24 0 Left 2
SYMATTR InstName D3
SYMBOL schottky 1952 208 R270
WINDOW 0 32 32 VTop 2
WINDOW 3 0 32 VBottom 2
SYMATTR InstName D4
SYMBOL cap 1440 368 R90
WINDOW 0 0 32 VBottom 2
WINDOW 3 32 32 VTop 2
SYMATTR InstName C5
SYMATTR Value 1µ
SYMBOL diode 1520 272 R0
SYMATTR InstName D5
SYMBOL cap 1696 176 R90
WINDOW 0 0 32 VBottom 2
WINDOW 3 32 32 VTop 2
SYMATTR InstName C6
SYMATTR Value 1µ
SYMBOL diode 1856 336 R180
WINDOW 0 24 64 Left 2
WINDOW 3 24 0 Left 2
SYMATTR InstName D6
SYMBOL cap 672 496 R180
WINDOW 0 24 56 Left 2
WINDOW 3 24 8 Left 2
SYMATTR InstName C7
SYMATTR Value 1m
SYMBOL cap 2112 272 R0
SYMATTR InstName C4
SYMATTR Value 1µ
SYMBOL res 2208 256 R0
SYMATTR InstName R1
SYMATTR Value 600k
SYMBOL ind2 288 816 R0
SYMATTR InstName L3
SYMATTR Value 25µ
SYMATTR Type ind
SYMATTR SpiceLine Rser=.74
SYMBOL ind2 384 816 R0
SYMATTR InstName L4
SYMATTR Value 250µ
SYMATTR Type ind
SYMATTR SpiceLine Rser=13.7
SYMBOL nmos 160 944 R0
SYMATTR InstName M2
SYMATTR Value IPI110N20N3
SYMBOL voltage 64 1056 R0
WINDOW 123 0 0 Left 0
WINDOW 39 0 0 Left 0
SYMATTR InstName V3
SYMATTR Value PULSE(0 20 0 0 0 60u 70u 10000)
SYMBOL voltage 176 688 R0
WINDOW 123 0 0 Left 0
WINDOW 39 0 0 Left 0
SYMATTR InstName V4
SYMATTR Value 5
SYMBOL schottky 592 944 R270
WINDOW 0 32 32 VTop 2
WINDOW 3 0 32 VBottom 2
SYMATTR InstName D7
SYMBOL cap 928 976 R0
SYMATTR InstName C8
SYMATTR Value 1µ
SYMBOL res 1056 960 R0
SYMATTR InstName R2
SYMATTR Value 600k
TEXT 272 8 Left 2 !K1 L1 L2 1
TEXT 0 472 Left 2 !.tran 50m
TEXT 304 744 Left 2 !K2 L3 L4 1
