Version 4
SHEET 1 928 680
WIRE 272 -48 144 -48
WIRE 144 -32 144 -48
WIRE 144 80 144 48
WIRE 368 80 336 80
WIRE 272 96 272 -48
WIRE 368 96 368 80
WIRE 272 192 272 176
WIRE 272 192 176 192
WIRE 336 192 336 80
WIRE 336 192 272 192
WIRE 368 192 368 176
WIRE 528 192 368 192
WIRE 688 192 592 192
WIRE 848 192 688 192
WIRE 176 208 176 192
WIRE 688 224 688 192
WIRE 848 224 848 192
WIRE 128 288 32 288
WIRE 688 304 688 288
WIRE 736 304 688 304
WIRE 688 320 688 304
WIRE 736 320 736 304
WIRE 848 320 848 304
WIRE 848 320 736 320
WIRE 32 336 32 288
WIRE 176 352 176 304
WIRE 32 448 32 416
FLAG 176 352 0
FLAG 32 448 0
FLAG 688 320 0
FLAG 144 80 0
SYMBOL ind2 256 80 R0
SYMATTR InstName L1
SYMATTR Value 25µ
SYMATTR Type ind
SYMATTR SpiceLine Rser=.74
SYMBOL ind2 352 80 R0
SYMATTR InstName L2
SYMATTR Value 250µ
SYMATTR Type ind
SYMATTR SpiceLine Rser=13.7
SYMBOL nmos 128 208 R0
SYMATTR InstName M1
SYMATTR Value IRF510
SYMBOL voltage 32 320 R0
WINDOW 123 0 0 Left 0
WINDOW 39 0 0 Left 0
SYMATTR InstName V1
SYMATTR Value PULSE(0 20 0 0 0 60u 70u 10000)
SYMBOL diode 528 208 R270
WINDOW 0 32 32 VTop 2
WINDOW 3 0 32 VBottom 2
SYMATTR InstName D1
SYMBOL cap 672 224 R0
SYMATTR InstName C1
SYMATTR Value 1µ
SYMBOL voltage 144 -48 R0
WINDOW 123 0 0 Left 0
WINDOW 39 0 0 Left 0
SYMATTR InstName V2
SYMATTR Value 5
SYMBOL res 832 208 R0
SYMATTR InstName R1
SYMATTR Value 100k
TEXT 272 8 Left 2 !K1 L1 L2 1
TEXT -2 472 Left 2 !.tran 5m
